**%   ============================================================
**%  
**%              I-DEAS 12M1 ABAQUS STANDARD TRANSLATOR 
**%                     FOR ABAQUS VERSION 6.x   
**%  
**%          MODEL FILE: C:\eprouvette_revue2.mf1
**%          INPUT FILE: Disque.inp
**%            EXPORTED: AT 04:19:27 ON 01-Jan-02
**%                PART: Disque
**%                 FEM: Fem1
**%  
**%               UNITS: MN-mm (newton)
**%                     ... LENGTH : mm
**%                     ... TIME   : sec
**%                     ... MASS   : tonne (t)
**%                     ... FORCE  : newton
**%                     ... TEMPERATURE : deg Celsius
**%  
**%         COORDINATE SYSTEM: PART
**%  
**%             SUBSET EXPORT: OFF
**%  
**%       NODE ZERO TOLERANCE: OFF
**%  
**%   ============================================================
**%  
**%  
*HEADING
SDRC I-DEAS ABAQUS FILE TRANSLATOR  01-Jan-02   04:19:27
**%==========================================
**%          MODAL DATA                      
**%==========================================
*NODE, NSET=ALLNODES, SYSTEM=R
          1, 2.0000000E+01, 1.3712984E+02,-4.7337317E+01
          2, 2.0000000E+01, 1.3398736E+02,-4.2210222E+01
          3, 2.0000000E+01, 1.5000000E+02,-6.7344772E-09
          4, 2.0000000E+01, 1.3078532E+02,-3.6953670E+01
          5, 2.0000000E+01,-1.5000000E+02, 6.7344868E-09
          6, 2.0000000E+01, 1.2675306E+02,-3.1279114E+01
          7, 2.0000000E+01, 1.2432196E+02,-2.4647073E+01
          8, 2.0000000E+01, 1.2173618E+02,-1.8885213E+01
          9, 2.0000000E+01, 1.4988141E+02, 5.9634223E+00
         10, 2.0000000E+01, 1.1906371E+02,-1.3387497E+01
         11, 2.0000000E+01, 1.4952585E+02, 1.1917211E+01
         12, 2.0000000E+01, 1.1635684E+02,-8.0244523E+00
         13, 2.0000000E+01, 1.4893389E+02, 1.7852077E+01
         14, 2.0000000E+01, 1.4198975E+02, 3.0831814E+01
         15, 2.0000000E+01, 1.4810642E+02, 2.3758986E+01
         16, 2.0000000E+01, 1.1946249E+02,-3.0583622E+00
         17, 2.0000000E+01, 1.4704473E+02, 2.9628490E+01
         18, 2.0000000E+01, 1.2249591E+02, 1.8786818E+00
         19, 2.0000000E+01, 1.4575052E+02, 3.5451165E+01
         20, 2.0000000E+01, 1.2548880E+02, 6.7123199E+00
** ... 2532 like lines cut
*ELEMENT, TYPE=S3      , ELSET=THIN SHELL1 
      1,      3,     80,      9
      2,      3,    319,    100
      3,     80,    100,     86
      4,     80,      3,    100
      5,      5,    163,   1719
      6,      5,   1720,    165
      7,      5,   1719,   1720
      8,      9,     80,     11
      9,     11,     70,     13
     10,     11,     80,     70
     11,     13,     56,     15
     12,     13,     70,     56
     13,     15,     44,     17
     14,     15,     56,     44
     15,     17,     14,     19
     16,     17,     44,     14
     17,     19,   2544,     21
     18,   2544,     19,     14
     19,     21,   2524,     23
     20,   2524,     21,   2544
** ... 4920 like lines cut
*SHELL SECTION,
 ELSET=THIN SHELL1 , 
 SECTION INTEGRATION=SIMPSON ,
 MATERIAL=GENERIC_ISOTROPIC_STEEL 
  1.00000E+00,
*MATERIAL,NAME=GENERIC_ISOTROPIC_STEEL 
*ELASTIC,TYPE=ISOTROPIC
 2.06800E+05,  2.90000E-01
*DENSITY
 7.82000E-09,
*EXPANSION,TYPE=ISO,ZERO=21.85
 1.17000E-05, 
*CONDUCTIVITY,TYPE=ISO
 4.50000E+01, 
**%
*ELSET, ELSET=ALLELEMENTS
 THIN SHELL1 , 
**% 
**%
*PHYSICAL CONSTANTS,
 STEFAN BOLTZMANN= 0.56696E-10,
 ABSOLUTE ZERO=-0.27315E+03
**%
**%==========================================
**%          HISTORY DATA                    
**%==========================================
**%
**% ====== STEP NUMBER   1 ======
**%
*STEP,INC=10
*STATIC 
*NODE FILE,FREQUENCY=1,GLOBAL=YES
U,
*OUTPUT, FIELD, FREQUENCY=1
*NODE OUTPUT, NSET=ALLNODES
U,
*EL FILE, FREQUENCY=1, POSITION=NODES, DIRECTIONS=YES
S,E 
*OUTPUT, FIELD, FREQUENCY=1
*ELEMENT OUTPUT, ELSET=ALLELEMENTS
S,E 
*END STEP
