**%   ============================================================
**%  
**%              I-DEAS 12M1 ABAQUS STANDARD TRANSLATOR 
**%                     FOR ABAQUS VERSION 6.x   
**%  
**%          MODEL FILE: C:\eprouvette_revue2.mf1
**%          INPUT FILE: E:\CATIA\Exemples_Catia\PlaqueGrande\PlaqueGrande.inp
**%            EXPORTED: AT 10:07:06 ON 01-Jan-02
**%                PART: PlaqueGrande
**%                 FEM: Fem1
**%  
**%               UNITS: MN-mm (newton)
**%                     ... LENGTH : mm
**%                     ... TIME   : sec
**%                     ... MASS   : tonne (t)
**%                     ... FORCE  : newton
**%                     ... TEMPERATURE : deg Celsius
**%  
**%         COORDINATE SYSTEM: PART
**%  
**%             SUBSET EXPORT: OFF
**%  
**%       NODE ZERO TOLERANCE: OFF
**%  
**%   ============================================================
**%  
**%  
*HEADING
SDRC I-DEAS ABAQUS FILE TRANSLATOR  01-Jan-02   10:07:06
**%==========================================
**%          MODAL DATA                      
**%==========================================
*NODE, NSET=ALLNODES, SYSTEM=R
          1, 2.0000000E+01,-1.4663292E+03,-2.9849770E+03
          2, 2.0000000E+01,-8.6632920E+02,-2.9849770E+03
          3, 2.0000000E+01,-1.0800000E+03,-1.3500000E+03
          4, 2.0000000E+01,-1.0800000E+03,-4.7550158E-09
          5, 2.0000000E+01,-2.0694614E+03, 7.6384950E+02
          6, 2.0000000E+01,-2.0694614E+03, 1.2338495E+03
          7, 2.0000000E+01,-4.6946144E+02, 1.2338495E+03
          8, 2.0000000E+01,-9.6830877E-09, 7.8428754E+02
          9, 2.0000000E+01, 1.1936568E-07,-2.0157125E+03
         10, 2.0000000E+01,-1.2394614E+03, 6.1384950E+02
         11, 2.0000000E+01,-7.8946144E+02, 6.1384950E+02
         12, 2.0000000E+01,-7.8946144E+02, 8.5384950E+02
         13, 2.0000000E+01,-1.2394614E+03, 8.5384950E+02
         14, 2.0000000E+01,-4.5000000E+02, 5.1884950E+02
         15, 2.0000000E+01,-4.0000000E+02, 5.1884950E+02
         16, 2.0000000E+01,-1.7694614E+03, 9.5884950E+02
         17, 2.0000000E+01,-1.7194614E+03, 9.5884950E+02
         18, 2.0000000E+01,-8.5000000E+02,-2.1099770E+03
         19, 2.0000000E+01,-6.0000000E+02,-2.1099770E+03
         20, 2.0000000E+01,-1.4363292E+03,-2.9849770E+03
** ... 2147 like lines cut
*ELEMENT, TYPE=S3      , ELSET=THIN SHELL1 
      1,   2072,   2048,   2071
      2,   2073,   2049,   2072
      3,   2051,   2058,   2050
      4,   2060,   2051,   2050
      5,   2056,   2050,   2058
      6,   2060,   2061,   2051
      7,   2055,   2052,   2053
      8,   2052,   2057,   2053
      9,   2057,   2052,   2056
     10,   2053,   2054,   2055
     11,   2057,   2056,   2058
     12,   2064,   2061,   2059
     13,   2063,   2064,   2059
     14,   2059,   2061,   2060
     15,   2064,   2062,   2061
     16,   2065,   2075,   2066
     17,   2074,   2075,   2065
     18,   2067,   2066,   2076
     19,   2076,   2066,   2075
     20,   2068,   2067,   2077
** ... 3842 like lines cut
*SHELL SECTION,
 ELSET=THIN SHELL1 , 
 SECTION INTEGRATION=SIMPSON ,
 MATERIAL=GENERIC_ISOTROPIC_STEEL 
  1.00000E+00,
*MATERIAL,NAME=GENERIC_ISOTROPIC_STEEL 
*ELASTIC,TYPE=ISOTROPIC
 2.06800E+05,  2.90000E-01
*DENSITY
 7.82000E-09,
*EXPANSION,TYPE=ISO,ZERO=21.85
 1.17000E-05, 
*CONDUCTIVITY,TYPE=ISO
 4.50000E+01, 
**%
*ELSET, ELSET=ALLELEMENTS
 THIN SHELL1 , 
**% 
**%
*PHYSICAL CONSTANTS,
 STEFAN BOLTZMANN= 0.56696E-10,
 ABSOLUTE ZERO=-0.27315E+03
**%
**%==========================================
**%          HISTORY DATA                    
**%==========================================
**%
**% ====== STEP NUMBER   1 ======
**%
*STEP,INC=10
*STATIC 
*NODE FILE,FREQUENCY=1,GLOBAL=YES
U,
*OUTPUT, FIELD, FREQUENCY=1
*NODE OUTPUT, NSET=ALLNODES
U,
*EL FILE, FREQUENCY=1, POSITION=NODES, DIRECTIONS=YES
S,E 
*OUTPUT, FIELD, FREQUENCY=1
*ELEMENT OUTPUT, ELSET=ALLELEMENTS
S,E 
*END STEP
