**%   ============================================================
**%  
**%              I-DEAS 12M1 ABAQUS STANDARD TRANSLATOR 
**%                     FOR ABAQUS VERSION 6.x   
**%  
**%          MODEL FILE: C:\eprouvette_revue2.mf1
**%          INPUT FILE: PlaqueGrandeLignes.inp
**%            EXPORTED: AT 04:12:45 ON 01-Jan-02
**%                PART: PlaqueGrandeLignes
**%                 FEM: Fem1
**%  
**%               UNITS: MN-mm (newton)
**%                     ... LENGTH : mm
**%                     ... TIME   : sec
**%                     ... MASS   : tonne (t)
**%                     ... FORCE  : newton
**%                     ... TEMPERATURE : deg Celsius
**%  
**%         COORDINATE SYSTEM: PART
**%  
**%             SUBSET EXPORT: OFF
**%  
**%       NODE ZERO TOLERANCE: OFF
**%  
**%   ============================================================
**%  
**%  
*HEADING
SDRC I-DEAS ABAQUS FILE TRANSLATOR  01-Jan-02   04:12:45
**%==========================================
**%          MODAL DATA                      
**%==========================================
*NODE, NSET=ALLNODES, SYSTEM=R
          1, 2.0000000E+01,-8.6632920E+02,-2.9849770E+03
          2, 2.0000000E+01, 1.1936568E-07,-2.0157125E+03
          3, 2.0000000E+01,-9.6830877E-09, 7.8428754E+02
          4, 2.0000000E+01,-4.6946144E+02, 1.2338495E+03
          5, 2.0000000E+01,-2.0694614E+03, 1.2338495E+03
          6, 2.0000000E+01,-2.0694614E+03, 7.6384950E+02
          7, 2.0000000E+01,-1.0800000E+03,-4.7550158E-09
          8, 2.0000000E+01,-1.0800000E+03,-1.3500000E+03
          9, 2.0000000E+01,-1.4663292E+03,-2.9849770E+03
         10, 2.0000000E+01,-1.2394614E+03, 6.1384950E+02
         11, 2.0000000E+01,-1.2394614E+03, 8.5384950E+02
         12, 2.0000000E+01,-7.8946144E+02, 8.5384950E+02
         13, 2.0000000E+01,-7.8946144E+02, 6.1384950E+02
         14, 2.0000000E+01,-6.0000000E+02,-2.1099770E+03
         15, 2.0000000E+01,-8.5000000E+02,-2.1099770E+03
         16, 2.0000000E+01,-5.5906888E+02,-1.0161505E+03
         17, 2.0000000E+01,-5.5000000E+02,-1.0161505E+03
         18, 2.0000000E+01,-5.5000000E+02,-2.5615050E+02
         19, 2.0000000E+01,-5.5906888E+02,-2.5615050E+02
         20, 2.0000000E+01,-8.4000000E+02,-2.5615050E+02
** ... 2444 like lines cut
*ELEMENT, TYPE=S3      , ELSET=THIN SHELL1 
      1,    909,    901,    908
      2,    902,    901,    909
      3,    903,    913,    904
      4,    910,    902,    909
      5,    912,    905,    904
      6,    913,    903,    915
      7,    919,    918,    906
      8,    904,    913,    912
      9,    922,    907,    906
     10,    912,    919,    905
     11,    907,    921,    908
     12,    919,    906,    905
     13,    908,    926,    909
     14,    922,    921,    907
     15,    910,    909,    925
     16,    908,    921,    926
     17,    929,    910,    925
     18,    926,    925,    909
     19,    919,    912,    911
     20,    914,    911,    912
** ... 4268 like lines cut
*SHELL SECTION,
 ELSET=THIN SHELL1 , 
 SECTION INTEGRATION=SIMPSON ,
 MATERIAL=GENERIC_ISOTROPIC_STEEL 
  1.00000E+00,
*MATERIAL,NAME=GENERIC_ISOTROPIC_STEEL 
*ELASTIC,TYPE=ISOTROPIC
 2.06800E+05,  2.90000E-01
*DENSITY
 7.82000E-09,
*EXPANSION,TYPE=ISO,ZERO=21.85
 1.17000E-05, 
*CONDUCTIVITY,TYPE=ISO
 4.50000E+01, 
**%
*ELSET, ELSET=ALLELEMENTS
 THIN SHELL1 , 
**% 
**%
*PHYSICAL CONSTANTS,
 STEFAN BOLTZMANN= 0.56696E-10,
 ABSOLUTE ZERO=-0.27315E+03
**%
**%==========================================
**%          HISTORY DATA                    
**%==========================================
**%
**% ====== STEP NUMBER   1 ======
**%
*STEP,INC=10
*STATIC 
*NODE FILE,FREQUENCY=1,GLOBAL=YES
U,
*OUTPUT, FIELD, FREQUENCY=1
*NODE OUTPUT, NSET=ALLNODES
U,
*EL FILE, FREQUENCY=1, POSITION=NODES, DIRECTIONS=YES
S,E 
*OUTPUT, FIELD, FREQUENCY=1
*ELEMENT OUTPUT, ELSET=ALLELEMENTS
S,E 
*END STEP
