**%   ============================================================
**%  
**%              I-DEAS 12M1 ABAQUS STANDARD TRANSLATOR 
**%                     FOR ABAQUS VERSION 6.x   
**%  
**%          MODEL FILE: C:\eprouvette_revue2.mf1
**%          INPUT FILE: 4PTS.inp
**%            EXPORTED: AT 05:15:05 ON 01-Jan-02
**%                PART: Plaque4Pts1Obstacle
**%                 FEM: Fem1
**%  
**%               UNITS: MN-mm (newton)
**%                     ... LENGTH : mm
**%                     ... TIME   : sec
**%                     ... MASS   : tonne (t)
**%                     ... FORCE  : newton
**%                     ... TEMPERATURE : deg Celsius
**%  
**%         COORDINATE SYSTEM: PART
**%  
**%             SUBSET EXPORT: OFF
**%  
**%       NODE ZERO TOLERANCE: OFF
**%  
**%   ============================================================
**%  
**%  
*HEADING
SDRC I-DEAS ABAQUS FILE TRANSLATOR  01-Jan-02   05:15:05
**%==========================================
**%          MODAL DATA                      
**%==========================================
*NODE, NSET=ALLNODES, SYSTEM=R
          1, 2.0000000E+01, 4.1977478E+02, 3.1892012E+01
          2, 2.0000000E+01, 4.2860309E+02, 6.5092697E+01
          3, 2.0000000E+01, 4.2876200E+02, 7.1822358E+01
          4, 2.0000000E+01, 4.2861339E+02, 5.4563022E+01
          5, 2.0000000E+01, 4.2267321E+02, 5.2256494E+01
          6, 2.0000000E+01, 4.3009268E+02, 5.9763746E+01
          7, 2.0000000E+01, 4.2263371E+02, 6.7818844E+01
          8, 2.0000000E+01, 4.2371683E+02, 5.9955784E+01
          9, 2.0000000E+01, 4.2213800E+02, 4.5193582E+01
         10, 2.0000000E+01, 4.2127538E+02, 3.8342842E+01
         11, 2.0000000E+01, 4.2878129E+02, 4.7994803E+01
         12, 2.0000000E+01, 4.2842096E+02, 4.0663504E+01
         13, 2.0000000E+01, 4.2712872E+02, 3.3617548E+01
         14, 2.0000000E+01, 4.2268533E+02, 1.5199232E+01
         15, 2.0000000E+01, 4.1622520E+02, 1.2179348E+01
         16, 2.0000000E+01, 4.1693583E+02, 1.9024755E+01
         17, 2.0000000E+01, 4.2792271E+02,-1.8659293E+00
         18, 2.0000000E+01, 4.2198992E+02, 1.5206728E+00
         19, 2.0000000E+01, 4.1576604E+02, 5.1903881E+00
         20, 2.0000000E+01, 4.2867398E+02, 4.6159975E+00
** ... 2291 like lines cut
*ELEMENT, TYPE=S3      , ELSET=THIN SHELL1 
      1,    466,   1034,    426
      2,    428,   1349,    488
      3,    490,   1349,    428
      4,    430,   2004,    562
      5,   2029,    430,    564
      6,   2029,   2004,    430
      7,    688,    686,    432
      8,    802,    800,    434
      9,   2216,    814,    436
     10,    816,   2216,    436
     11,   1550,    956,    438
     12,   1553,    438,    957
     13,   1544,    438,   1553
     14,   1447,    985,    440
     15,   1447,    440,    986
     16,   1267,    442,   1035
     17,    442,   1969,   1080
     18,    442,   1267,   1135
     19,   1969,    442,   1135
     20,   1292,   1053,    444
** ... 4187 like lines cut
*SHELL SECTION,
 ELSET=THIN SHELL1 , 
 SECTION INTEGRATION=SIMPSON ,
 MATERIAL=GENERIC_ISOTROPIC_STEEL 
  1.00000E+00,
*MATERIAL,NAME=GENERIC_ISOTROPIC_STEEL 
*ELASTIC,TYPE=ISOTROPIC
 2.06800E+05,  2.90000E-01
*DENSITY
 7.82000E-09,
*EXPANSION,TYPE=ISO,ZERO=21.85
 1.17000E-05, 
*CONDUCTIVITY,TYPE=ISO
 4.50000E+01, 
**%
*ELSET, ELSET=ALLELEMENTS
 THIN SHELL1 , 
**% 
**%
*PHYSICAL CONSTANTS,
 STEFAN BOLTZMANN= 0.56696E-10,
 ABSOLUTE ZERO=-0.27315E+03
**%
**%==========================================
**%          HISTORY DATA                    
**%==========================================
**%
**% ====== STEP NUMBER   1 ======
**%
*STEP,INC=10
*STATIC 
*NODE FILE,FREQUENCY=1,GLOBAL=YES
U,
*OUTPUT, FIELD, FREQUENCY=1
*NODE OUTPUT, NSET=ALLNODES
U,
*EL FILE, FREQUENCY=1, POSITION=NODES, DIRECTIONS=YES
S,E 
*OUTPUT, FIELD, FREQUENCY=1
*ELEMENT OUTPUT, ELSET=ALLELEMENTS
S,E 
*END STEP
