**%   ============================================================
**%  
**%              I-DEAS 12M1 ABAQUS STANDARD TRANSLATOR 
**%                     FOR ABAQUS VERSION 6.x   
**%  
**%          MODEL FILE: C:\eprouvette_revue2.mf1
**%          INPUT FILE: 3PTS.inp
**%            EXPORTED: AT 05:10:43 ON 01-Jan-02
**%                PART: Plaque3Pts1Obstacle
**%                 FEM: Fem1
**%  
**%               UNITS: MN-mm (newton)
**%                     ... LENGTH : mm
**%                     ... TIME   : sec
**%                     ... MASS   : tonne (t)
**%                     ... FORCE  : newton
**%                     ... TEMPERATURE : deg Celsius
**%  
**%         COORDINATE SYSTEM: PART
**%  
**%             SUBSET EXPORT: OFF
**%  
**%       NODE ZERO TOLERANCE: OFF
**%  
**%   ============================================================
**%  
**%  
*HEADING
SDRC I-DEAS ABAQUS FILE TRANSLATOR  01-Jan-02   05:10:43
**%==========================================
**%          MODAL DATA                      
**%==========================================
*NODE, NSET=ALLNODES, SYSTEM=R
          1, 2.0000000E+01, 4.2525066E+02, 3.3414222E+01
          2, 2.0000000E+01, 4.2872256E+02, 3.6742558E+01
          3, 2.0000000E+01, 4.2960190E+02, 3.1473604E+01
          4, 2.0000000E+01, 4.2958193E+02, 6.4446516E+01
          5, 2.0000000E+01, 4.2720578E+02, 6.8621679E+01
          6, 2.0000000E+01, 4.2790577E+02, 7.4438940E+01
          7, 2.0000000E+01, 4.2866596E+02, 5.3775965E+01
          8, 2.0000000E+01, 4.2329872E+02, 5.0899338E+01
          9, 2.0000000E+01, 4.2949562E+02, 5.9570081E+01
         10, 2.0000000E+01, 4.2479272E+02, 6.2817077E+01
         11, 2.0000000E+01, 4.2380623E+02, 5.6964001E+01
         12, 2.0000000E+01, 4.2831042E+02, 4.1817257E+01
         13, 2.0000000E+01, 4.2898292E+02, 4.7782941E+01
         14, 2.0000000E+01, 4.2276361E+02, 3.8037192E+01
         15, 2.0000000E+01, 4.2298467E+02, 4.4693074E+01
         16, 2.0000000E+01, 4.2896071E+02, 6.7838866E-01
         17, 2.0000000E+01, 4.2414754E+02, 4.1905788E+00
         18, 2.0000000E+01, 4.1733395E+02, 5.1462328E+00
         19, 2.0000000E+01, 4.2402248E+02, 2.2866750E+01
         20, 2.0000000E+01, 4.2363467E+02, 1.6402735E+01
** ... 2350 like lines cut
*ELEMENT, TYPE=S3      , ELSET=THIN SHELL1 
      1,    454,   1083,    418
      2,   1554,    476,    420
      3,    478,   1554,    420
      4,   1811,    550,    422
      5,    552,   1825,    422
      6,   1825,   1811,    422
      7,     83,    674,    424
      8,    676,     83,    424
      9,    790,    788,    426
     10,   2276,    802,    428
     11,    804,   2276,    428
     12,   2043,    950,    430
     13,   2049,    430,    952
     14,   2049,   2043,    430
     15,   2100,   1008,    432
     16,   2100,    432,   1010
     17,   1084,   1242,    434
     18,    434,   1956,   1129
     19,    434,   1228,   1175
     20,   1956,    434,   1175
** ... 4311 like lines cut
*SHELL SECTION,
 ELSET=THIN SHELL1 , 
 SECTION INTEGRATION=SIMPSON ,
 MATERIAL=GENERIC_ISOTROPIC_STEEL 
  1.00000E+00,
*MATERIAL,NAME=GENERIC_ISOTROPIC_STEEL 
*ELASTIC,TYPE=ISOTROPIC
 2.06800E+05,  2.90000E-01
*DENSITY
 7.82000E-09,
*EXPANSION,TYPE=ISO,ZERO=21.85
 1.17000E-05, 
*CONDUCTIVITY,TYPE=ISO
 4.50000E+01, 
**%
*ELSET, ELSET=ALLELEMENTS
 THIN SHELL1 , 
**% 
**%
*PHYSICAL CONSTANTS,
 STEFAN BOLTZMANN= 0.56696E-10,
 ABSOLUTE ZERO=-0.27315E+03
**%
**%==========================================
**%          HISTORY DATA                    
**%==========================================
**%
**% ====== STEP NUMBER   1 ======
**%
*STEP,INC=10
*STATIC 
*NODE FILE,FREQUENCY=1,GLOBAL=YES
U,
*OUTPUT, FIELD, FREQUENCY=1
*NODE OUTPUT, NSET=ALLNODES
U,
*EL FILE, FREQUENCY=1, POSITION=NODES, DIRECTIONS=YES
S,E 
*OUTPUT, FIELD, FREQUENCY=1
*ELEMENT OUTPUT, ELSET=ALLELEMENTS
S,E 
*END STEP
