**%   ============================================================
**%  
**%              I-DEAS 12M1 ABAQUS STANDARD TRANSLATOR 
**%                     FOR ABAQUS VERSION 6.x   
**%  
**%          MODEL FILE: C:\eprouvette_revue2.mf1
**%          INPUT FILE: 2PTS.inp
**%            EXPORTED: AT 05:04:17 ON 01-Jan-02
**%                PART: Plaque2Pts1Obstacle Duplicate1
**%                 FEM: Fem1
**%  
**%               UNITS: MN-mm (newton)
**%                     ... LENGTH : mm
**%                     ... TIME   : sec
**%                     ... MASS   : tonne (t)
**%                     ... FORCE  : newton
**%                     ... TEMPERATURE : deg Celsius
**%  
**%         COORDINATE SYSTEM: PART
**%  
**%             SUBSET EXPORT: OFF
**%  
**%       NODE ZERO TOLERANCE: OFF
**%  
**%   ============================================================
**%  
**%  
*HEADING
SDRC I-DEAS ABAQUS FILE TRANSLATOR  01-Jan-02   05:04:17
**%==========================================
**%          MODAL DATA                      
**%==========================================
*NODE, NSET=ALLNODES, SYSTEM=R
          1, 2.0000000E+01, 1.8799375E+02, 8.1524201E+01
          2, 2.0000000E+01, 1.9053847E+02, 8.5735201E+01
          3, 2.0000000E+01, 1.9331405E+02, 8.1430280E+01
          4, 2.0000000E+01, 2.0455269E+02, 8.1935334E+01
          5, 2.0000000E+01, 2.0706899E+02, 8.7219666E+01
          6, 2.0000000E+01, 2.0995155E+02, 9.2846300E+01
          7, 2.0000000E+01, 1.9566753E+02, 9.4044668E+01
          8, 2.0000000E+01, 1.9755556E+02, 8.9759837E+01
          9, 2.0000000E+01, 2.0101127E+02, 8.6492555E+01
         10, 2.0000000E+01, 1.9909350E+02, 9.9124697E+01
         11, 2.0000000E+01, 2.0238763E+02, 9.2587912E+01
         12, 2.0000000E+01, 2.0634282E+02, 9.8626530E+01
         13, 2.0000000E+01, 2.0309090E+02, 1.0476867E+02
         14, 2.0000000E+01, 4.0612678E+02, 1.0852346E+02
         15, 2.0000000E+01, 4.0966097E+02, 1.1109021E+02
         16, 2.0000000E+01, 4.1322093E+02, 1.1351883E+02
         17, 2.0000000E+01, 4.1674112E+02, 1.1586839E+02
         18, 2.0000000E+01, 4.2011875E+02, 1.1824930E+02
         19, 2.0000000E+01, 4.2330595E+02, 1.2096358E+02
         20, 2.0000000E+01, 4.2665019E+02, 1.2318368E+02
** ... 2577 like lines cut
*ELEMENT, TYPE=S3      , ELSET=THIN SHELL1 
      1,    442,   1094,    410
      2,   1814,    464,    412
      3,    466,   1814,    412
      4,    414,   2120,    538
      5,   2108,    414,    540
      6,   2120,    414,   2108
      7,   1491,    662,    416
      8,   1491,    416,    664
      9,    778,    776,    418
     10,    813,    790,    420
     11,    785,    420,    792
     12,    813,    420,    785
     13,   2369,    938,    422
     14,    940,   2370,    422
     15,   2370,   2369,    422
     16,   2419,    996,    424
     17,   2419,    424,    998
     18,   1559,    426,   1096
     19,    426,   2283,   1186
     20,    426,   1559,   1262
** ... 4771 like lines cut
*SHELL SECTION,
 ELSET=THIN SHELL1 , 
 SECTION INTEGRATION=SIMPSON ,
 MATERIAL=GENERIC_ISOTROPIC_STEEL 
  1.00000E+00,
*MATERIAL,NAME=GENERIC_ISOTROPIC_STEEL 
*ELASTIC,TYPE=ISOTROPIC
 2.06800E+05,  2.90000E-01
*DENSITY
 7.82000E-09,
*EXPANSION,TYPE=ISO,ZERO=21.85
 1.17000E-05, 
*CONDUCTIVITY,TYPE=ISO
 4.50000E+01, 
**%
*ELSET, ELSET=ALLELEMENTS
 THIN SHELL1 , 
**% 
**%
*PHYSICAL CONSTANTS,
 STEFAN BOLTZMANN= 0.56696E-10,
 ABSOLUTE ZERO=-0.27315E+03
**%
**%==========================================
**%          HISTORY DATA                    
**%==========================================
**%
**% ====== STEP NUMBER   1 ======
**%
*STEP,INC=10
*STATIC 
*NODE FILE,FREQUENCY=1,GLOBAL=YES
U,
*OUTPUT, FIELD, FREQUENCY=1
*NODE OUTPUT, NSET=ALLNODES
U,
*EL FILE, FREQUENCY=1, POSITION=NODES, DIRECTIONS=YES
S,E 
*OUTPUT, FIELD, FREQUENCY=1
*ELEMENT OUTPUT, ELSET=ALLELEMENTS
S,E 
*END STEP
