**%   ============================================================
**%  
**%              I-DEAS 12M1 ABAQUS STANDARD TRANSLATOR 
**%                     FOR ABAQUS VERSION 6.x   
**%  
**%          MODEL FILE: C:\eprouvette_revue2.mf1
**%          INPUT FILE: PlaqueCarreeaaa.inp
**%            EXPORTED: AT 00:55:27 ON 01-Jan-02
**%                PART: PlaqueCarree
**%                 FEM: Fem1
**%  
**%               UNITS: MN-mm (newton)
**%                     ... LENGTH : mm
**%                     ... TIME   : sec
**%                     ... MASS   : tonne (t)
**%                     ... FORCE  : newton
**%                     ... TEMPERATURE : deg Celsius
**%  
**%         COORDINATE SYSTEM: PART
**%  
**%             SUBSET EXPORT: OFF
**%  
**%       NODE ZERO TOLERANCE: OFF
**%  
**%   ============================================================
**%  
**%  
*HEADING
SDRC I-DEAS ABAQUS FILE TRANSLATOR  01-Jan-02   00:55:27
**%==========================================
**%          MODAL DATA                      
**%==========================================
*NODE, NSET=ALLNODES, SYSTEM=R
          1,-1.5000000E+02,-1.5000000E+02, 0.0000000E+00
          2, 1.5000000E+02,-1.5000000E+02, 0.0000000E+00
          3,-1.5000000E+02, 1.5000000E+02, 0.0000000E+00
          4, 1.5000000E+02, 1.5000000E+02, 0.0000000E+00
          5,-1.4500000E+02,-1.5000000E+02, 0.0000000E+00
          6,-1.4000000E+02,-1.5000000E+02, 0.0000000E+00
          7,-1.3500000E+02,-1.5000000E+02, 0.0000000E+00
          8,-1.3000000E+02,-1.5000000E+02, 0.0000000E+00
          9,-1.2500000E+02,-1.5000000E+02, 0.0000000E+00
         10,-1.2000000E+02,-1.5000000E+02, 0.0000000E+00
         11,-1.1500000E+02,-1.5000000E+02, 0.0000000E+00
         12,-1.1000000E+02,-1.5000000E+02, 0.0000000E+00
         13,-1.0500000E+02,-1.5000000E+02, 0.0000000E+00
         14,-1.0000000E+02,-1.5000000E+02, 0.0000000E+00
         15,-9.5000000E+01,-1.5000000E+02, 0.0000000E+00
         16,-9.0000000E+01,-1.5000000E+02, 0.0000000E+00
         17,-8.5000000E+01,-1.5000000E+02, 0.0000000E+00
         18,-8.0000000E+01,-1.5000000E+02, 0.0000000E+00
         19,-7.5000000E+01,-1.5000000E+02, 0.0000000E+00
         20,-7.0000000E+01,-1.5000000E+02, 0.0000000E+00
** ... 1715 like lines cut
*ELEMENT, TYPE=S3      , ELSET=THIN SHELL1 
      1,   1633,   1667,   1687
      2,    482,    495,    483
      3,   1050,   1170,   1049
      4,   1635,   1641,   1634
      5,   1049,   1233,   1050
      6,    482,    491,    493
      7,    122,      5,      1
      8,   1635,   1634,   1651
      9,   1170,   1171,   1049
     10,    495,    482,    530
     11,     63,    182,      2
     12,   1634,   1645,   1651
     13,   1049,   1195,   1233
     14,    483,    484,    488
     15,    181,     64,      3
     16,   1636,   1639,   1635
     17,   1051,   1169,   1050
     18,    483,    501,    484
     19,    240,    123,      4
     20,   1636,   1635,   1658
** ... 3208 like lines cut
*SHELL SECTION,
 ELSET=THIN SHELL1 , 
 SECTION INTEGRATION=SIMPSON ,
 MATERIAL=GENERIC_ISOTROPIC_STEEL 
  1.00000E+00,
*MATERIAL,NAME=GENERIC_ISOTROPIC_STEEL 
*ELASTIC,TYPE=ISOTROPIC
 2.06800E+05,  2.90000E-01
*DENSITY
 7.82000E-09,
*EXPANSION,TYPE=ISO,ZERO=21.85
 1.17000E-05, 
*CONDUCTIVITY,TYPE=ISO
 4.50000E+01, 
**%
*ELSET, ELSET=ALLELEMENTS
 THIN SHELL1 , 
**% 
**%
*PHYSICAL CONSTANTS,
 STEFAN BOLTZMANN= 0.56696E-10,
 ABSOLUTE ZERO=-0.27315E+03
**%
**%==========================================
**%          HISTORY DATA                    
**%==========================================
**%
**% ====== STEP NUMBER   1 ======
**%
*STEP,INC=10
*STATIC 
*NODE FILE,FREQUENCY=1,GLOBAL=YES
U,
*OUTPUT, FIELD, FREQUENCY=1
*NODE OUTPUT, NSET=ALLNODES
U,
*EL FILE, FREQUENCY=1, POSITION=NODES, DIRECTIONS=YES
S,E 
*OUTPUT, FIELD, FREQUENCY=1
*ELEMENT OUTPUT, ELSET=ALLELEMENTS
S,E 
*END STEP
