**%   ============================================================
**%  
**%              I-DEAS 12M1 ABAQUS STANDARD TRANSLATOR 
**%                     FOR ABAQUS VERSION 6.x   
**%  
**%          MODEL FILE: C:\eprouvette_revue2.mf1
**%          INPUT FILE: E:\CATIA\Exemples_Catia\PlaqueCarreTrouCentral\PlaqueCarreTrouCentral.inp
**%            EXPORTED: AT 10:18:20 ON 01-Jan-02
**%                PART: PlaqueCarreTrouCentral
**%                 FEM: Fem1
**%  
**%               UNITS: MN-mm (newton)
**%                     ... LENGTH : mm
**%                     ... TIME   : sec
**%                     ... MASS   : tonne (t)
**%                     ... FORCE  : newton
**%                     ... TEMPERATURE : deg Celsius
**%  
**%         COORDINATE SYSTEM: PART
**%  
**%             SUBSET EXPORT: OFF
**%  
**%       NODE ZERO TOLERANCE: OFF
**%  
**%   ============================================================
**%  
**%  
*HEADING
SDRC I-DEAS ABAQUS FILE TRANSLATOR  01-Jan-02   10:18:20
**%==========================================
**%          MODAL DATA                      
**%==========================================
*NODE, NSET=ALLNODES, SYSTEM=R
          1, 2.0000000E+01, 1.3051714E+01, 2.9201934E+01
          2, 2.0000000E+01, 3.6843481E+00, 2.7369882E+01
          3, 2.0000000E+01, 8.2789629E+00, 2.5554018E+01
          4, 2.0000000E+01, 3.1587915E+01, 2.6368343E+01
          5, 2.0000000E+01, 2.4457014E+01, 2.2742604E+01
          6, 2.0000000E+01, 1.8698945E+01, 1.9053756E+01
          7, 2.0000000E+01, 1.2747066E+01, 1.5265982E+01
          8, 2.0000000E+01, 7.4666696E+00, 1.4922053E+01
          9, 2.0000000E+01, 3.5930578E+00, 1.2015912E+01
         10, 2.0000000E+01, 4.7874412E+01, 4.2120800E+00
         11, 2.0000000E+01, 5.1484278E+01, 9.8442740E+00
         12, 2.0000000E+01, 5.5682626E+01, 1.4666978E+01
         13, 2.0000000E+01, 5.8761733E+01, 4.1549079E+00
         14, 2.0000000E+01, 5.7133425E+01, 8.9517027E+00
         15, 2.0000000E+01, 5.3875641E+01, 4.5271608E+00
         16, 2.0000000E+01, 4.9372772E+01, 1.6145654E+01
         17, 2.0000000E+01, 4.7407107E+01, 2.3119275E+01
         18, 2.0000000E+01, 5.4145667E+01, 2.1214827E+01
         19, 2.0000000E+01, 4.0770092E+01, 4.5294261E+00
         20, 2.0000000E+01, 4.5025825E+01, 1.0602722E+01
** ... 2273 like lines cut
*ELEMENT, TYPE=S3      , ELSET=THIN SHELL1 
      1,    248,    249,    247
      2,    252,    248,    247
      3,    251,    247,    249
      4,    253,    248,    252
      5,    254,    248,    253
      6,    250,    251,    249
      7,    253,    255,    254
      8,    255,    256,    254
      9,    256,    255,    257
     10,    257,    258,    256
     11,    260,    266,    259
     12,    260,    259,    310
     13,    310,    259,    311
     14,    261,    268,    260
     15,    260,    323,    261
     16,    268,    266,    260
     17,    260,    310,    323
     18,    261,    262,    270
     19,    262,    261,    322
     20,    261,    270,    268
** ... 4258 like lines cut
*SHELL SECTION,
 ELSET=THIN SHELL1 , 
 SECTION INTEGRATION=SIMPSON ,
 MATERIAL=GENERIC_ISOTROPIC_STEEL 
  1.00000E+00,
*MATERIAL,NAME=GENERIC_ISOTROPIC_STEEL 
*ELASTIC,TYPE=ISOTROPIC
 2.06800E+05,  2.90000E-01
*DENSITY
 7.82000E-09,
*EXPANSION,TYPE=ISO,ZERO=21.85
 1.17000E-05, 
*CONDUCTIVITY,TYPE=ISO
 4.50000E+01, 
**%
*ELSET, ELSET=ALLELEMENTS
 THIN SHELL1 , 
**% 
**%
*PHYSICAL CONSTANTS,
 STEFAN BOLTZMANN= 0.56696E-10,
 ABSOLUTE ZERO=-0.27315E+03
**%
**%==========================================
**%          HISTORY DATA                    
**%==========================================
**%
**% ====== STEP NUMBER   1 ======
**%
*STEP,INC=10
*STATIC 
*NODE FILE,FREQUENCY=1,GLOBAL=YES
U,
*OUTPUT, FIELD, FREQUENCY=1
*NODE OUTPUT, NSET=ALLNODES
U,
*EL FILE, FREQUENCY=1, POSITION=NODES, DIRECTIONS=YES
S,E 
*OUTPUT, FIELD, FREQUENCY=1
*ELEMENT OUTPUT, ELSET=ALLELEMENTS
S,E 
*END STEP
