**%   ============================================================
**%  
**%              I-DEAS 12M1 ABAQUS STANDARD TRANSLATOR 
**%                     FOR ABAQUS VERSION 6.x   
**%  
**%          MODEL FILE: C:\DOCUME~1\RENAUD~1\eprouvette_revue2.mf1
**%          INPUT FILE: meshREVUE.inp
**%            EXPORTED: AT 11:50:55 ON 01-Jan-02
**%                PART: reajuste_extrude
**%                 FEM: Fem1
**%  
**%               UNITS: MM-mm (milli-newton)
**%                     ... LENGTH : mm
**%                     ... TIME   : sec
**%                     ... MASS   : kilogram (kg)
**%                     ... FORCE  : milli-newton
**%                     ... TEMPERATURE : deg Celsius
**%  
**%         COORDINATE SYSTEM: PART
**%  
**%             SUBSET EXPORT: OFF
**%  
**%       NODE ZERO TOLERANCE: OFF
**%  
**%   ============================================================
**%  
**%  
*HEADING
SDRC I-DEAS ABAQUS FILE TRANSLATOR  01-Jan-02   11:50:55
**%==========================================
**%          MODAL DATA                      
**%==========================================
*NODE, NSET=ALLNODES, SYSTEM=R
          1, 6.2000000E+01, 4.5000000E+01, 0.0000000E+00
          2,-5.5000000E+01, 3.0000000E+00, 0.0000000E+00
          3,-1.5000000E+02, 1.7500000E+02, 0.0000000E+00
          4,-1.5000000E+02, 1.6998344E+02, 0.0000000E+00
          5,-1.5000000E+02, 1.6496790E+02, 0.0000000E+00
          6,-1.5000000E+02, 1.5995438E+02, 0.0000000E+00
          7,-1.5000000E+02, 1.5494390E+02, 0.0000000E+00
          8,-1.5000000E+02, 1.4993746E+02, 0.0000000E+00
          9,-1.5000000E+02, 1.4493605E+02, 0.0000000E+00
         10,-1.5000000E+02, 1.3994063E+02, 0.0000000E+00
         11,-1.5000000E+02, 1.3495216E+02, 0.0000000E+00
         12,-1.5000000E+02, 1.2997159E+02, 0.0000000E+00
         13,-1.5000000E+02, 1.2499983E+02, 0.0000000E+00
         14,-1.5000000E+02, 1.2003777E+02, 0.0000000E+00
         15,-1.5000000E+02, 1.1508627E+02, 0.0000000E+00
         16,-1.5000000E+02, 1.1014618E+02, 0.0000000E+00
         17,-1.5000000E+02, 1.0521830E+02, 0.0000000E+00
         18,-1.5000000E+02, 1.0030340E+02, 0.0000000E+00
         19,-1.5000000E+02, 9.5402229E+01, 0.0000000E+00
         20,-1.5000000E+02, 9.0515493E+01, 0.0000000E+00
** ... 2540 like lines cut
*ELEMENT, TYPE=S3      , ELSET=THIN SHELL1 
      1,   1062,   1064,    968
      2,   1064,    969,    968
      3,    970,   1066,    971
      4,   1064,    970,    969
      5,   1066,    970,   1065
      6,   1065,    970,   1064
      7,    981,    975,    974
      8,    973,    980,    974
      9,    981,    976,    975
     10,    980,    981,    974
     11,    981,    982,    976
     12,    977,    976,    982
     13,    983,    977,    982
     14,    978,    977,    983
     15,    984,    978,    983
     16,    979,    978,    984
     17,    992,    981,    980
     18,    985,    979,    984
     19,   1001,    981,    992
     20,    981,   1001,    982
** ... 4604 like lines cut
*SHELL SECTION,
 ELSET=THIN SHELL1 , 
 SECTION INTEGRATION=SIMPSON ,
 MATERIAL=GENERIC_ISOTROPIC_STEEL 
  1.00000E+00,
*MATERIAL,NAME=GENERIC_ISOTROPIC_STEEL 
*ELASTIC,TYPE=ISOTROPIC
 2.06800E+08,  2.90000E-01
*DENSITY
 7.82000E-06,
*EXPANSION,TYPE=ISO,ZERO=21.85
 1.17000E-05, 
*CONDUCTIVITY,TYPE=ISO
 4.50000E+04, 
**%
*ELSET, ELSET=ALLELEMENTS
 THIN SHELL1 , 
**% 
**%
*PHYSICAL CONSTANTS,
 STEFAN BOLTZMANN= 0.56696E-07,
 ABSOLUTE ZERO=-0.27315E+03
**%
**%==========================================
**%          HISTORY DATA                    
**%==========================================
**%
**% ====== STEP NUMBER   1 ======
**%
*STEP,INC=10
*STATIC 
*NODE FILE,FREQUENCY=1,GLOBAL=YES
U,
*OUTPUT, FIELD, FREQUENCY=1
*NODE OUTPUT, NSET=ALLNODES
U,
*EL FILE, FREQUENCY=1, POSITION=NODES, DIRECTIONS=YES
S,E 
*OUTPUT, FIELD, FREQUENCY=1
*ELEMENT OUTPUT, ELSET=ALLELEMENTS
S,E 
*END STEP
